rawData/IEEE_8500/dss_scripts/Loads_8500_reduced.dss
! Reduced load file for IEEE_8500 feeder
! All residential loads aggregated at the primary (MV) side of
! 120/240 V service transformers.  Generated by parse_8500_reduced.py.
! Total: 10773.17 kW  /  2700.01 kvar

New Load.red_293471_a                                phases=1  Bus1=293471.1  kv=7.1996  kW=8.870000  kvar=2.223032  model=1  conn=wye
New Load.red_293471_b                                phases=1  Bus1=293471.2  kv=7.1996  kW=9.730000  kvar=2.438568  model=1  conn=wye
New Load.red_293471_c                                phases=1  Bus1=293471.3  kv=7.1996  kW=10.170000  kvar=2.548842  model=1  conn=wye
New Load.red_l0247160_b                              phases=1  Bus1=L0247160.2  kv=7.1996  kW=5.840000  kvar=1.463642  model=1  conn=wye
New Load.red_l0247162_b                              phases=1  Bus1=L0247162.2  kv=7.1996  kW=5.840000  kvar=1.463642  model=1  conn=wye
New Load.red_l0247171_b                              phases=1  Bus1=L0247171.2  kv=7.1996  kW=5.840000  kvar=1.463642  model=1  conn=wye
New Load.red_l2673300_b                              phases=1  Bus1=L2673300.2  kv=7.1996  kW=9.730000  kvar=2.438568  model=1  conn=wye
New Load.red_l2673303_c                              phases=1  Bus1=L2673303.3  kv=7.1996  kW=6.100000  kvar=1.528804  model=1  conn=wye
New Load.red_l2673305_b                              phases=1  Bus1=L2673305.2  kv=7.1996  kW=3.890000  kvar=0.974926  model=1  conn=wye
New Load.red_l2673306_c                              phases=1  Bus1=L2673306.3  kv=7.1996  kW=10.170000  kvar=2.548842  model=1  conn=wye
New Load.red_l2673307_c                              phases=1  Bus1=L2673307.3  kv=7.1996  kW=6.100000  kvar=1.528804  model=1  conn=wye
New Load.red_l2673308_b                              phases=1  Bus1=L2673308.2  kv=7.1996  kW=14.590000  kvar=3.656599  model=1  conn=wye
New Load.red_l2673309_c                              phases=1  Bus1=L2673309.3  kv=7.1996  kW=10.170000  kvar=2.548842  model=1  conn=wye
New Load.red_l2673310_a                              phases=1  Bus1=L2673310.1  kv=7.1996  kW=8.870000  kvar=2.223032  model=1  conn=wye
New Load.red_l2673311_a                              phases=1  Bus1=L2673311.1  kv=7.1996  kW=8.870000  kvar=2.223032  model=1  conn=wye
New Load.red_l2673312_a                              phases=1  Bus1=L2673312.1  kv=7.1996  kW=8.870000  kvar=2.223032  model=1  conn=wye
New Load.red_l2673313_b                              phases=1  Bus1=L2673313.2  kv=7.1996  kW=9.730000  kvar=2.438568  model=1  conn=wye
New Load.red_l2673314_c                              phases=1  Bus1=L2673314.3  kv=7.1996  kW=4.070000  kvar=1.020038  model=1  conn=wye
New Load.red_l2673315_a                              phases=1  Bus1=L2673315.1  kv=7.1996  kW=3.550000  kvar=0.889714  model=1  conn=wye
New Load.red_l2673316_a                              phases=1  Bus1=L2673316.1  kv=7.1996  kW=3.550000  kvar=0.889714  model=1  conn=wye
New Load.red_l2673317_a                              phases=1  Bus1=L2673317.1  kv=7.1996  kW=5.320000  kvar=1.333318  model=1  conn=wye
New Load.red_l2673318_c                              phases=1  Bus1=L2673318.3  kv=7.1996  kW=10.170000  kvar=2.548842  model=1  conn=wye
New Load.red_l2673319_c                              phases=1  Bus1=L2673319.3  kv=7.1996  kW=6.100000  kvar=1.528804  model=1  conn=wye
New Load.red_l2673320_b                              phases=1  Bus1=L2673320.2  kv=7.1996  kW=9.730000  kvar=2.438568  model=1  conn=wye
New Load.red_l2673321_a                              phases=1  Bus1=L2673321.1  kv=7.1996  kW=8.870000  kvar=2.223032  model=1  conn=wye
New Load.red_l2673322_b                              phases=1  Bus1=L2673322.2  kv=7.1996  kW=3.890000  kvar=0.974926  model=1  conn=wye
New Load.red_l2673323_c                              phases=1  Bus1=L2673323.3  kv=7.1996  kW=10.170000  kvar=2.548842  model=1  conn=wye
New Load.red_l2673326_b                              phases=1  Bus1=L2673326.2  kv=7.1996  kW=5.840000  kvar=1.463642  model=1  conn=wye
New Load.red_l2673331_b                              phases=1  Bus1=L2673331.2  kv=7.1996  kW=19.450000  kvar=4.874629  model=1  conn=wye
New Load.red_l2673343_b                              phases=1  Bus1=L2673343.2  kv=7.1996  kW=5.840000  kvar=1.463642  model=1  conn=wye
New Load.red_l2673346_c                              phases=1  Bus1=L2673346.3  kv=7.1996  kW=10.170000  kvar=2.548842  model=1  conn=wye
New Load.red_l2674027_b                              phases=1  Bus1=L2674027.2  kv=7.1996  kW=9.730000  kvar=2.438568  model=1  conn=wye
New Load.red_l2674047_c                              phases=1  Bus1=L2674047.3  kv=7.1996  kW=6.100000  kvar=1.528804  model=1  conn=wye
New Load.red_l2674051_a                              phases=1  Bus1=L2674051.1  kv=7.1996  kW=5.320000  kvar=1.333318  model=1  conn=wye
New Load.red_l2674052_c                              phases=1  Bus1=L2674052.3  kv=7.1996  kW=6.100000  kvar=1.528804  model=1  conn=wye
New Load.red_l2684420_b                              phases=1  Bus1=L2684420.2  kv=7.1996  kW=5.840000  kvar=1.463642  model=1  conn=wye
New Load.red_l2685805_a                              phases=1  Bus1=L2685805.1  kv=7.1996  kW=8.870000  kvar=2.223032  model=1  conn=wye
New Load.red_l2685809_a                              phases=1  Bus1=L2685809.1  kv=7.1996  kW=5.320000  kvar=1.333318  model=1  conn=wye
New Load.red_l2688692_b                              phases=1  Bus1=L2688692.2  kv=7.1996  kW=5.840000  kvar=1.463642  model=1  conn=wye
New Load.red_l2688693_c                              phases=1  Bus1=L2688693.3  kv=7.1996  kW=6.100000  kvar=1.528804  model=1  conn=wye
New Load.red_l2689678_b                              phases=1  Bus1=L2689678.2  kv=7.1996  kW=1.950000  kvar=0.488716  model=1  conn=wye
New Load.red_l2689691_a                              phases=1  Bus1=L2689691.1  kv=7.1996  kW=8.870000  kvar=2.223032  model=1  conn=wye
New Load.red_l2690187_b                              phases=1  Bus1=L2690187.2  kv=7.1996  kW=29.180000  kvar=7.313197  model=1  conn=wye
New Load.red_l2690868_c                              phases=1  Bus1=L2690868.3  kv=7.1996  kW=20.340000  kvar=5.097685  model=1  conn=wye
New Load.red_l2690941_b                              phases=1  Bus1=L2690941.2  kv=7.1996  kW=9.730000  kvar=2.438568  model=1  conn=wye
New Load.red_l2691936_a                              phases=1  Bus1=L2691936.1  kv=7.1996  kW=5.320000  kvar=1.333318  model=1  conn=wye
New Load.red_l2691938_b                              phases=1  Bus1=L2691938.2  kv=7.1996  kW=9.730000  kvar=2.438568  model=1  conn=wye
New Load.red_l2691939_b                              phases=1  Bus1=L2691939.2  kv=7.1996  kW=9.730000  kvar=2.438568  model=1  conn=wye
New Load.red_l2691941_c                              phases=1  Bus1=L2691941.3  kv=7.1996  kW=10.170000  kvar=2.548842  model=1  conn=wye
New Load.red_l2691942_b                              phases=1  Bus1=L2691942.2  kv=7.1996  kW=5.840000  kvar=1.463642  model=1  conn=wye
New Load.red_l2691943_b                              phases=1  Bus1=L2691943.2  kv=7.1996  kW=5.840000  kvar=1.463642  model=1  conn=wye
New Load.red_l2691944_a                              phases=1  Bus1=L2691944.1  kv=7.1996  kW=8.870000  kvar=2.223032  model=1  conn=wye
New Load.red_l2691945_c                              phases=1  Bus1=L2691945.3  kv=7.1996  kW=10.170000  kvar=2.548842  model=1  conn=wye
New Load.red_l2691946_b                              phases=1  Bus1=L2691946.2  kv=7.1996  kW=5.840000  kvar=1.463642  model=1  conn=wye
New Load.red_l2691947_a                              phases=1  Bus1=L2691947.1  kv=7.1996  kW=3.550000  kvar=0.889714  model=1  conn=wye
New Load.red_l2691948_b                              phases=1  Bus1=L2691948.2  kv=7.1996  kW=5.840000  kvar=1.463642  model=1  conn=wye
New Load.red_l2691949_b                              phases=1  Bus1=L2691949.2  kv=7.1996  kW=9.730000  kvar=2.438568  model=1  conn=wye
New Load.red_l2691950_c                              phases=1  Bus1=L2691950.3  kv=7.1996  kW=10.170000  kvar=2.548842  model=1  conn=wye
New Load.red_l2691951_c                              phases=1  Bus1=L2691951.3  kv=7.1996  kW=10.170000  kvar=2.548842  model=1  conn=wye
New Load.red_l2691952_a                              phases=1  Bus1=L2691952.1  kv=7.1996  kW=5.320000  kvar=1.333318  model=1  conn=wye
New Load.red_l2691953_a                              phases=1  Bus1=L2691953.1  kv=7.1996  kW=5.320000  kvar=1.333318  model=1  conn=wye
New Load.red_l2691954_b                              phases=1  Bus1=L2691954.2  kv=7.1996  kW=9.730000  kvar=2.438568  model=1  conn=wye
New Load.red_l2691959_b                              phases=1  Bus1=L2691959.2  kv=7.1996  kW=38.900000  kvar=9.749259  model=1  conn=wye
New Load.red_l2691965_b                              phases=1  Bus1=L2691965.2  kv=7.1996  kW=1.950000  kvar=0.488716  model=1  conn=wye
New Load.red_l2691966_b                              phases=1  Bus1=L2691966.2  kv=7.1996  kW=19.450000  kvar=4.874629  model=1  conn=wye
New Load.red_l2691967_b                              phases=1  Bus1=L2691967.2  kv=7.1996  kW=5.840000  kvar=1.463642  model=1  conn=wye
New Load.red_l2691973_a                              phases=1  Bus1=L2691973.1  kv=7.1996  kW=5.320000  kvar=1.333318  model=1  conn=wye
New Load.red_l2692600_c                              phases=1  Bus1=L2692600.3  kv=7.1996  kW=10.170000  kvar=2.548842  model=1  conn=wye
New Load.red_l2692633_c                              phases=1  Bus1=L2692633.3  kv=7.1996  kW=10.170000  kvar=2.548842  model=1  conn=wye
New Load.red_l2692654_a                              phases=1  Bus1=L2692654.1  kv=7.1996  kW=5.320000  kvar=1.333318  model=1  conn=wye
New Load.red_l2692655_c                              phases=1  Bus1=L2692655.3  kv=7.1996  kW=10.170000  kvar=2.548842  model=1  conn=wye
New Load.red_l2692660_a                              phases=1  Bus1=L2692660.1  kv=7.1996  kW=17.740000  kvar=4.446063  model=1  conn=wye
New Load.red_l2692661_a                              phases=1  Bus1=L2692661.1  kv=7.1996  kW=8.870000  kvar=2.223032  model=1  conn=wye
New Load.red_l2692664_c                              phases=1  Bus1=L2692664.3  kv=7.1996  kW=6.100000  kvar=1.528804  model=1  conn=wye
New Load.red_l2708744_b                              phases=1  Bus1=L2708744.2  kv=7.1996  kW=29.180000  kvar=7.313197  model=1  conn=wye
New Load.red_l2710504_b                              phases=1  Bus1=L2710504.2  kv=7.1996  kW=14.590000  kvar=3.656599  model=1  conn=wye
New Load.red_l2710505_b                              phases=1  Bus1=L2710505.2  kv=7.1996  kW=5.840000  kvar=1.463642  model=1  conn=wye
New Load.red_l2710508_b                              phases=1  Bus1=L2710508.2  kv=7.1996  kW=5.840000  kvar=1.463642  model=1  conn=wye
New Load.red_l2710509_c                              phases=1  Bus1=L2710509.3  kv=7.1996  kW=6.100000  kvar=1.528804  model=1  conn=wye
New Load.red_l2710510_c                              phases=1  Bus1=L2710510.3  kv=7.1996  kW=4.070000  kvar=1.020038  model=1  conn=wye
New Load.red_l2710511_a                              phases=1  Bus1=L2710511.1  kv=7.1996  kW=8.870000  kvar=2.223032  model=1  conn=wye
New Load.red_l2710512_b                              phases=1  Bus1=L2710512.2  kv=7.1996  kW=9.730000  kvar=2.438568  model=1  conn=wye
New Load.red_l2710513_b                              phases=1  Bus1=L2710513.2  kv=7.1996  kW=3.890000  kvar=0.974926  model=1  conn=wye
New Load.red_l2710514_b                              phases=1  Bus1=L2710514.2  kv=7.1996  kW=9.730000  kvar=2.438568  model=1  conn=wye
New Load.red_l2710515_c                              phases=1  Bus1=L2710515.3  kv=7.1996  kW=15.260000  kvar=3.824517  model=1  conn=wye
New Load.red_l2710516_a                              phases=1  Bus1=L2710516.1  kv=7.1996  kW=8.870000  kvar=2.223032  model=1  conn=wye
New Load.red_l2710517_a                              phases=1  Bus1=L2710517.1  kv=7.1996  kW=5.320000  kvar=1.333318  model=1  conn=wye
New Load.red_l2710518_a                              phases=1  Bus1=L2710518.1  kv=7.1996  kW=8.870000  kvar=2.223032  model=1  conn=wye
New Load.red_l2710519_a                              phases=1  Bus1=L2710519.1  kv=7.1996  kW=3.550000  kvar=0.889714  model=1  conn=wye
New Load.red_l2710520_a                              phases=1  Bus1=L2710520.1  kv=7.1996  kW=5.320000  kvar=1.333318  model=1  conn=wye
New Load.red_l2710521_a                              phases=1  Bus1=L2710521.1  kv=7.1996  kW=8.870000  kvar=2.223032  model=1  conn=wye
New Load.red_l2710525_c                              phases=1  Bus1=L2710525.3  kv=7.1996  kW=10.170000  kvar=2.548842  model=1  conn=wye
New Load.red_l2710530_b                              phases=1  Bus1=L2710530.2  kv=7.1996  kW=5.840000  kvar=1.463642  model=1  conn=wye
New Load.red_l2710532_c                              phases=1  Bus1=L2710532.3  kv=7.1996  kW=4.070000  kvar=1.020038  model=1  conn=wye
New Load.red_l2710536_a                              phases=1  Bus1=L2710536.1  kv=7.1996  kW=8.870000  kvar=2.223032  model=1  conn=wye
New Load.red_l2710537_b                              phases=1  Bus1=L2710537.2  kv=7.1996  kW=9.730000  kvar=2.438568  model=1  conn=wye
New Load.red_l2710542_b                              phases=1  Bus1=L2710542.2  kv=7.1996  kW=9.730000  kvar=2.438568  model=1  conn=wye
New Load.red_l2710543_c                              phases=1  Bus1=L2710543.3  kv=7.1996  kW=10.170000  kvar=2.548842  model=1  conn=wye
New Load.red_l2710544_a                              phases=1  Bus1=L2710544.1  kv=7.1996  kW=5.320000  kvar=1.333318  model=1  conn=wye
New Load.red_l2710546_b                              phases=1  Bus1=L2710546.2  kv=7.1996  kW=9.730000  kvar=2.438568  model=1  conn=wye
New Load.red_l2711224_b                              phases=1  Bus1=L2711224.2  kv=7.1996  kW=3.890000  kvar=0.974926  model=1  conn=wye
New Load.red_l2711225_c                              phases=1  Bus1=L2711225.3  kv=7.1996  kW=6.100000  kvar=1.528804  model=1  conn=wye
New Load.red_l2711226_b                              phases=1  Bus1=L2711226.2  kv=7.1996  kW=9.730000  kvar=2.438568  model=1  conn=wye
New Load.red_l2711234_b                              phases=1  Bus1=L2711234.2  kv=7.1996  kW=9.730000  kvar=2.438568  model=1  conn=wye
New Load.red_l2724120_c                              phases=1  Bus1=L2724120.3  kv=7.1996  kW=10.170000  kvar=2.548842  model=1  conn=wye
New Load.red_l2726973_a                              phases=1  Bus1=L2726973.1  kv=7.1996  kW=8.870000  kvar=2.223032  model=1  conn=wye
New Load.red_l2726974_b                              phases=1  Bus1=L2726974.2  kv=7.1996  kW=9.730000  kvar=2.438568  model=1  conn=wye
New Load.red_l2726975_b                              phases=1  Bus1=L2726975.2  kv=7.1996  kW=5.840000  kvar=1.463642  model=1  conn=wye
New Load.red_l2726983_a                              phases=1  Bus1=L2726983.1  kv=7.1996  kW=13.300000  kvar=3.333294  model=1  conn=wye
New Load.red_l2727795_c                              phases=1  Bus1=L2727795.3  kv=7.1996  kW=6.100000  kvar=1.528804  model=1  conn=wye
New Load.red_l2728247_a                              phases=1  Bus1=L2728247.1  kv=7.1996  kW=3.550000  kvar=0.889714  model=1  conn=wye
New Load.red_l2728247_b                              phases=1  Bus1=L2728247.2  kv=7.1996  kW=9.730000  kvar=2.438568  model=1  conn=wye
New Load.red_l2728247_c                              phases=1  Bus1=L2728247.3  kv=7.1996  kW=4.070000  kvar=1.020038  model=1  conn=wye
New Load.red_l2729206_c                              phases=1  Bus1=L2729206.3  kv=7.1996  kW=15.260000  kvar=3.824517  model=1  conn=wye
New Load.red_l2729207_c                              phases=1  Bus1=L2729207.3  kv=7.1996  kW=20.340000  kvar=5.097685  model=1  conn=wye
New Load.red_l2729401_b                              phases=1  Bus1=L2729401.2  kv=7.1996  kW=5.840000  kvar=1.463642  model=1  conn=wye
New Load.red_l2729405_b                              phases=1  Bus1=L2729405.2  kv=7.1996  kW=9.730000  kvar=2.438568  model=1  conn=wye
New Load.red_l2729406_c                              phases=1  Bus1=L2729406.3  kv=7.1996  kW=6.100000  kvar=1.528804  model=1  conn=wye
New Load.red_l2729407_b                              phases=1  Bus1=L2729407.2  kv=7.1996  kW=5.840000  kvar=1.463642  model=1  conn=wye
New Load.red_l2729408_b                              phases=1  Bus1=L2729408.2  kv=7.1996  kW=9.730000  kvar=2.438568  model=1  conn=wye
New Load.red_l2729409_b                              phases=1  Bus1=L2729409.2  kv=7.1996  kW=9.730000  kvar=2.438568  model=1  conn=wye
New Load.red_l2729410_c                              phases=1  Bus1=L2729410.3  kv=7.1996  kW=10.170000  kvar=2.548842  model=1  conn=wye
New Load.red_l2729411_a                              phases=1  Bus1=L2729411.1  kv=7.1996  kW=3.550000  kvar=0.889714  model=1  conn=wye
New Load.red_l2729412_a                              phases=1  Bus1=L2729412.1  kv=7.1996  kW=8.870000  kvar=2.223032  model=1  conn=wye
New Load.red_l2729413_a                              phases=1  Bus1=L2729413.1  kv=7.1996  kW=5.320000  kvar=1.333318  model=1  conn=wye
New Load.red_l2729414_a                              phases=1  Bus1=L2729414.1  kv=7.1996  kW=8.870000  kvar=2.223032  model=1  conn=wye
New Load.red_l2729414_b                              phases=1  Bus1=L2729414.2  kv=7.1996  kW=9.730000  kvar=2.438568  model=1  conn=wye
New Load.red_l2729414_c                              phases=1  Bus1=L2729414.3  kv=7.1996  kW=10.170000  kvar=2.548842  model=1  conn=wye
New Load.red_l2729423_c                              phases=1  Bus1=L2729423.3  kv=7.1996  kW=6.100000  kvar=1.528804  model=1  conn=wye
New Load.red_l2729424_a                              phases=1  Bus1=L2729424.1  kv=7.1996  kW=5.320000  kvar=1.333318  model=1  conn=wye
New Load.red_l2729427_b                              phases=1  Bus1=L2729427.2  kv=7.1996  kW=5.840000  kvar=1.463642  model=1  conn=wye
New Load.red_l2729428_a                              phases=1  Bus1=L2729428.1  kv=7.1996  kW=5.320000  kvar=1.333318  model=1  conn=wye
New Load.red_l2729429_a                              phases=1  Bus1=L2729429.1  kv=7.1996  kW=8.870000  kvar=2.223032  model=1  conn=wye
New Load.red_l2729430_b                              phases=1  Bus1=L2729430.2  kv=7.1996  kW=9.730000  kvar=2.438568  model=1  conn=wye
New Load.red_l2729434_b                              phases=1  Bus1=L2729434.2  kv=7.1996  kW=5.840000  kvar=1.463642  model=1  conn=wye
New Load.red_l2730106_c                              phases=1  Bus1=L2730106.3  kv=7.1996  kW=10.170000  kvar=2.548842  model=1  conn=wye
New Load.red_l2730107_c                              phases=1  Bus1=L2730107.3  kv=7.1996  kW=10.170000  kvar=2.548842  model=1  conn=wye
New Load.red_l2730108_c                              phases=1  Bus1=L2730108.3  kv=7.1996  kW=6.100000  kvar=1.528804  model=1  conn=wye
New Load.red_l2730149_c                              phases=1  Bus1=L2730149.3  kv=7.1996  kW=6.100000  kvar=1.528804  model=1  conn=wye
New Load.red_l2730163_c                              phases=1  Bus1=L2730163.3  kv=7.1996  kW=10.170000  kvar=2.548842  model=1  conn=wye
New Load.red_l2730187_a                              phases=1  Bus1=L2730187.1  kv=7.1996  kW=13.300000  kvar=3.333294  model=1  conn=wye
New Load.red_l2731712_b                              phases=1  Bus1=L2731712.2  kv=7.1996  kW=9.730000  kvar=2.438568  model=1  conn=wye
New Load.red_l2745799_c                              phases=1  Bus1=L2745799.3  kv=7.1996  kW=10.170000  kvar=2.548842  model=1  conn=wye
New Load.red_l2745806_c                              phases=1  Bus1=L2745806.3  kv=7.1996  kW=10.170000  kvar=2.548842  model=1  conn=wye
New Load.red_l2745811_c                              phases=1  Bus1=L2745811.3  kv=7.1996  kW=10.170000  kvar=2.548842  model=1  conn=wye
New Load.red_l2746587_c                              phases=1  Bus1=L2746587.3  kv=7.1996  kW=10.170000  kvar=2.548842  model=1  conn=wye
New Load.red_l2748124_b                              phases=1  Bus1=L2748124.2  kv=7.1996  kW=9.730000  kvar=2.438568  model=1  conn=wye
New Load.red_l2748125_c                              phases=1  Bus1=L2748125.3  kv=7.1996  kW=10.170000  kvar=2.548842  model=1  conn=wye
New Load.red_l2748126_c                              phases=1  Bus1=L2748126.3  kv=7.1996  kW=10.170000  kvar=2.548842  model=1  conn=wye
New Load.red_l2748127_a                              phases=1  Bus1=L2748127.1  kv=7.1996  kW=5.320000  kvar=1.333318  model=1  conn=wye
New Load.red_l2748128_c                              phases=1  Bus1=L2748128.3  kv=7.1996  kW=10.170000  kvar=2.548842  model=1  conn=wye
New Load.red_l2748129_a                              phases=1  Bus1=L2748129.1  kv=7.1996  kW=13.300000  kvar=3.333294  model=1  conn=wye
New Load.red_l2748130_b                              phases=1  Bus1=L2748130.2  kv=7.1996  kW=9.730000  kvar=2.438568  model=1  conn=wye
New Load.red_l2748131_b                              phases=1  Bus1=L2748131.2  kv=7.1996  kW=5.840000  kvar=1.463642  model=1  conn=wye
New Load.red_l2748132_a                              phases=1  Bus1=L2748132.1  kv=7.1996  kW=5.320000  kvar=1.333318  model=1  conn=wye
New Load.red_l2748133_c                              phases=1  Bus1=L2748133.3  kv=7.1996  kW=6.100000  kvar=1.528804  model=1  conn=wye
New Load.red_l2748135_a                              phases=1  Bus1=L2748135.1  kv=7.1996  kW=8.870000  kvar=2.223032  model=1  conn=wye
New Load.red_l2748139_b                              phases=1  Bus1=L2748139.2  kv=7.1996  kW=5.840000  kvar=1.463642  model=1  conn=wye
New Load.red_l2748140_a                              phases=1  Bus1=L2748140.1  kv=7.1996  kW=8.870000  kvar=2.223032  model=1  conn=wye
New Load.red_l2748143_a                              phases=1  Bus1=L2748143.1  kv=7.1996  kW=8.870000  kvar=2.223032  model=1  conn=wye
New Load.red_l2748144_a                              phases=1  Bus1=L2748144.1  kv=7.1996  kW=8.870000  kvar=2.223032  model=1  conn=wye
New Load.red_l2748146_a                              phases=1  Bus1=L2748146.1  kv=7.1996  kW=5.320000  kvar=1.333318  model=1  conn=wye
New Load.red_l2748152_b                              phases=1  Bus1=L2748152.2  kv=7.1996  kW=5.840000  kvar=1.463642  model=1  conn=wye
New Load.red_l2748157_a                              phases=1  Bus1=L2748157.1  kv=7.1996  kW=13.300000  kvar=3.333294  model=1  conn=wye
New Load.red_l2748158_a                              phases=1  Bus1=L2748158.1  kv=7.1996  kW=5.320000  kvar=1.333318  model=1  conn=wye
New Load.red_l2748780_a                              phases=1  Bus1=L2748780.1  kv=7.1996  kW=8.870000  kvar=2.223032  model=1  conn=wye
New Load.red_l2748781_a                              phases=1  Bus1=L2748781.1  kv=7.1996  kW=13.300000  kvar=3.333294  model=1  conn=wye
New Load.red_l2748839_b                              phases=1  Bus1=L2748839.2  kv=7.1996  kW=3.890000  kvar=0.974926  model=1  conn=wye
New Load.red_l2748840_b                              phases=1  Bus1=L2748840.2  kv=7.1996  kW=5.840000  kvar=1.463642  model=1  conn=wye
New Load.red_l2763072_b                              phases=1  Bus1=L2763072.2  kv=7.1996  kW=9.730000  kvar=2.438568  model=1  conn=wye
New Load.red_l2763153_a                              phases=1  Bus1=L2763153.1  kv=7.1996  kW=8.870000  kvar=2.223032  model=1  conn=wye
New Load.red_l2763407_c                              phases=1  Bus1=L2763407.3  kv=7.1996  kW=10.170000  kvar=2.548842  model=1  conn=wye
New Load.red_l2763811_c                              phases=1  Bus1=L2763811.3  kv=7.1996  kW=30.520000  kvar=7.649033  model=1  conn=wye
New Load.red_l2763812_c                              phases=1  Bus1=L2763812.3  kv=7.1996  kW=30.520000  kvar=7.649033  model=1  conn=wye
New Load.red_l2764399_b                              phases=1  Bus1=L2764399.2  kv=7.1996  kW=5.840000  kvar=1.463642  model=1  conn=wye
New Load.red_l2764403_a                              phases=1  Bus1=L2764403.1  kv=7.1996  kW=8.870000  kvar=2.223032  model=1  conn=wye
New Load.red_l2764411_c                              phases=1  Bus1=L2764411.3  kv=7.1996  kW=6.100000  kvar=1.528804  model=1  conn=wye
New Load.red_l2764412_a                              phases=1  Bus1=L2764412.1  kv=7.1996  kW=8.870000  kvar=2.223032  model=1  conn=wye
New Load.red_l2766499_c                              phases=1  Bus1=L2766499.3  kv=7.1996  kW=20.340000  kvar=5.097685  model=1  conn=wye
New Load.red_l2766715_b                              phases=1  Bus1=L2766715.2  kv=7.1996  kW=5.840000  kvar=1.463642  model=1  conn=wye
New Load.red_l2766716_c                              phases=1  Bus1=L2766716.3  kv=7.1996  kW=6.100000  kvar=1.528804  model=1  conn=wye
New Load.red_l2766717_c                              phases=1  Bus1=L2766717.3  kv=7.1996  kW=4.070000  kvar=1.020038  model=1  conn=wye
New Load.red_l2766718_c                              phases=1  Bus1=L2766718.3  kv=7.1996  kW=15.260000  kvar=3.824517  model=1  conn=wye
New Load.red_l2766719_a                              phases=1  Bus1=L2766719.1  kv=7.1996  kW=8.870000  kvar=2.223032  model=1  conn=wye
New Load.red_l2766720_a                              phases=1  Bus1=L2766720.1  kv=7.1996  kW=8.870000  kvar=2.223032  model=1  conn=wye
New Load.red_l2766721_a                              phases=1  Bus1=L2766721.1  kv=7.1996  kW=8.870000  kvar=2.223032  model=1  conn=wye
New Load.red_l2766722_b                              phases=1  Bus1=L2766722.2  kv=7.1996  kW=9.730000  kvar=2.438568  model=1  conn=wye
New Load.red_l2766723_a                              phases=1  Bus1=L2766723.1  kv=7.1996  kW=8.870000  kvar=2.223032  model=1  conn=wye
New Load.red_l2766724_c                              phases=1  Bus1=L2766724.3  kv=7.1996  kW=6.100000  kvar=1.528804  model=1  conn=wye
New Load.red_l2766725_c                              phases=1  Bus1=L2766725.3  kv=7.1996  kW=6.100000  kvar=1.528804  model=1  conn=wye
New Load.red_l2766726_b                              phases=1  Bus1=L2766726.2  kv=7.1996  kW=5.840000  kvar=1.463642  model=1  conn=wye
New Load.red_l2766727_b                              phases=1  Bus1=L2766727.2  kv=7.1996  kW=5.840000  kvar=1.463642  model=1  conn=wye
New Load.red_l2766729_a                              phases=1  Bus1=L2766729.1  kv=7.1996  kW=8.870000  kvar=2.223032  model=1  conn=wye
New Load.red_l2766730_b                              phases=1  Bus1=L2766730.2  kv=7.1996  kW=5.840000  kvar=1.463642  model=1  conn=wye
New Load.red_l2766732_b                              phases=1  Bus1=L2766732.2  kv=7.1996  kW=3.890000  kvar=0.974926  model=1  conn=wye
New Load.red_l2766738_c                              phases=1  Bus1=L2766738.3  kv=7.1996  kW=10.170000  kvar=2.548842  model=1  conn=wye
New Load.red_l2766741_a                              phases=1  Bus1=L2766741.1  kv=7.1996  kW=8.870000  kvar=2.223032  model=1  conn=wye
New Load.red_l2766742_b                              phases=1  Bus1=L2766742.2  kv=7.1996  kW=5.840000  kvar=1.463642  model=1  conn=wye
New Load.red_l2766744_b                              phases=1  Bus1=L2766744.2  kv=7.1996  kW=9.730000  kvar=2.438568  model=1  conn=wye
New Load.red_l2766746_c                              phases=1  Bus1=L2766746.3  kv=7.1996  kW=10.170000  kvar=2.548842  model=1  conn=wye
...
