rawData/IEEE_8500/dss_scripts/PVSystems_8500.dss
! PV systems for IEEE_8500 reduced circuit (primary MV network).
! 1177 co-located PVsystems, one per load node.
! Each pmpp = 40% of the node load -> total PV = 40% of feeder peak load.
! Feeder peak load: 10773.17 kW   Total installed PV: 4309.27 kW
! Generated by add_pv_battery_8500.py

New PVsystem.pv_293471_a                               bus1=293471.1  Phases=1  kV=7.2  kVA=3.5480  pmpp=3.5480  %Cutin=0.1  %Cutout=0.1
New PVsystem.pv_293471_b                               bus1=293471.2  Phases=1  kV=7.2  kVA=3.8920  pmpp=3.8920  %Cutin=0.1  %Cutout=0.1
New PVsystem.pv_293471_c                               bus1=293471.3  Phases=1  kV=7.2  kVA=4.0680  pmpp=4.0680  %Cutin=0.1  %Cutout=0.1
New PVsystem.pv_l0247160_b                             bus1=L0247160.2  Phases=1  kV=7.2  kVA=2.3360  pmpp=2.3360  %Cutin=0.1  %Cutout=0.1
New PVsystem.pv_l0247162_b                             bus1=L0247162.2  Phases=1  kV=7.2  kVA=2.3360  pmpp=2.3360  %Cutin=0.1  %Cutout=0.1
New PVsystem.pv_l0247171_b                             bus1=L0247171.2  Phases=1  kV=7.2  kVA=2.3360  pmpp=2.3360  %Cutin=0.1  %Cutout=0.1
New PVsystem.pv_l2673300_b                             bus1=L2673300.2  Phases=1  kV=7.2  kVA=3.8920  pmpp=3.8920  %Cutin=0.1  %Cutout=0.1
New PVsystem.pv_l2673303_c                             bus1=L2673303.3  Phases=1  kV=7.2  kVA=2.4400  pmpp=2.4400  %Cutin=0.1  %Cutout=0.1
New PVsystem.pv_l2673305_b                             bus1=L2673305.2  Phases=1  kV=7.2  kVA=1.5560  pmpp=1.5560  %Cutin=0.1  %Cutout=0.1
New PVsystem.pv_l2673306_c                             bus1=L2673306.3  Phases=1  kV=7.2  kVA=4.0680  pmpp=4.0680  %Cutin=0.1  %Cutout=0.1
New PVsystem.pv_l2673307_c                             bus1=L2673307.3  Phases=1  kV=7.2  kVA=2.4400  pmpp=2.4400  %Cutin=0.1  %Cutout=0.1
New PVsystem.pv_l2673308_b                             bus1=L2673308.2  Phases=1  kV=7.2  kVA=5.8360  pmpp=5.8360  %Cutin=0.1  %Cutout=0.1
New PVsystem.pv_l2673309_c                             bus1=L2673309.3  Phases=1  kV=7.2  kVA=4.0680  pmpp=4.0680  %Cutin=0.1  %Cutout=0.1
New PVsystem.pv_l2673310_a                             bus1=L2673310.1  Phases=1  kV=7.2  kVA=3.5480  pmpp=3.5480  %Cutin=0.1  %Cutout=0.1
New PVsystem.pv_l2673311_a                             bus1=L2673311.1  Phases=1  kV=7.2  kVA=3.5480  pmpp=3.5480  %Cutin=0.1  %Cutout=0.1
New PVsystem.pv_l2673312_a                             bus1=L2673312.1  Phases=1  kV=7.2  kVA=3.5480  pmpp=3.5480  %Cutin=0.1  %Cutout=0.1
New PVsystem.pv_l2673313_b                             bus1=L2673313.2  Phases=1  kV=7.2  kVA=3.8920  pmpp=3.8920  %Cutin=0.1  %Cutout=0.1
New PVsystem.pv_l2673314_c                             bus1=L2673314.3  Phases=1  kV=7.2  kVA=1.6280  pmpp=1.6280  %Cutin=0.1  %Cutout=0.1
New PVsystem.pv_l2673315_a                             bus1=L2673315.1  Phases=1  kV=7.2  kVA=1.4200  pmpp=1.4200  %Cutin=0.1  %Cutout=0.1
New PVsystem.pv_l2673316_a                             bus1=L2673316.1  Phases=1  kV=7.2  kVA=1.4200  pmpp=1.4200  %Cutin=0.1  %Cutout=0.1
New PVsystem.pv_l2673317_a                             bus1=L2673317.1  Phases=1  kV=7.2  kVA=2.1280  pmpp=2.1280  %Cutin=0.1  %Cutout=0.1
New PVsystem.pv_l2673318_c                             bus1=L2673318.3  Phases=1  kV=7.2  kVA=4.0680  pmpp=4.0680  %Cutin=0.1  %Cutout=0.1
New PVsystem.pv_l2673319_c                             bus1=L2673319.3  Phases=1  kV=7.2  kVA=2.4400  pmpp=2.4400  %Cutin=0.1  %Cutout=0.1
New PVsystem.pv_l2673320_b                             bus1=L2673320.2  Phases=1  kV=7.2  kVA=3.8920  pmpp=3.8920  %Cutin=0.1  %Cutout=0.1
New PVsystem.pv_l2673321_a                             bus1=L2673321.1  Phases=1  kV=7.2  kVA=3.5480  pmpp=3.5480  %Cutin=0.1  %Cutout=0.1
New PVsystem.pv_l2673322_b                             bus1=L2673322.2  Phases=1  kV=7.2  kVA=1.5560  pmpp=1.5560  %Cutin=0.1  %Cutout=0.1
New PVsystem.pv_l2673323_c                             bus1=L2673323.3  Phases=1  kV=7.2  kVA=4.0680  pmpp=4.0680  %Cutin=0.1  %Cutout=0.1
New PVsystem.pv_l2673326_b                             bus1=L2673326.2  Phases=1  kV=7.2  kVA=2.3360  pmpp=2.3360  %Cutin=0.1  %Cutout=0.1
New PVsystem.pv_l2673331_b                             bus1=L2673331.2  Phases=1  kV=7.2  kVA=7.7800  pmpp=7.7800  %Cutin=0.1  %Cutout=0.1
New PVsystem.pv_l2673343_b                             bus1=L2673343.2  Phases=1  kV=7.2  kVA=2.3360  pmpp=2.3360  %Cutin=0.1  %Cutout=0.1
New PVsystem.pv_l2673346_c                             bus1=L2673346.3  Phases=1  kV=7.2  kVA=4.0680  pmpp=4.0680  %Cutin=0.1  %Cutout=0.1
New PVsystem.pv_l2674027_b                             bus1=L2674027.2  Phases=1  kV=7.2  kVA=3.8920  pmpp=3.8920  %Cutin=0.1  %Cutout=0.1
New PVsystem.pv_l2674047_c                             bus1=L2674047.3  Phases=1  kV=7.2  kVA=2.4400  pmpp=2.4400  %Cutin=0.1  %Cutout=0.1
New PVsystem.pv_l2674051_a                             bus1=L2674051.1  Phases=1  kV=7.2  kVA=2.1280  pmpp=2.1280  %Cutin=0.1  %Cutout=0.1
New PVsystem.pv_l2674052_c                             bus1=L2674052.3  Phases=1  kV=7.2  kVA=2.4400  pmpp=2.4400  %Cutin=0.1  %Cutout=0.1
New PVsystem.pv_l2684420_b                             bus1=L2684420.2  Phases=1  kV=7.2  kVA=2.3360  pmpp=2.3360  %Cutin=0.1  %Cutout=0.1
New PVsystem.pv_l2685805_a                             bus1=L2685805.1  Phases=1  kV=7.2  kVA=3.5480  pmpp=3.5480  %Cutin=0.1  %Cutout=0.1
New PVsystem.pv_l2685809_a                             bus1=L2685809.1  Phases=1  kV=7.2  kVA=2.1280  pmpp=2.1280  %Cutin=0.1  %Cutout=0.1
New PVsystem.pv_l2688692_b                             bus1=L2688692.2  Phases=1  kV=7.2  kVA=2.3360  pmpp=2.3360  %Cutin=0.1  %Cutout=0.1
New PVsystem.pv_l2688693_c                             bus1=L2688693.3  Phases=1  kV=7.2  kVA=2.4400  pmpp=2.4400  %Cutin=0.1  %Cutout=0.1
New PVsystem.pv_l2689678_b                             bus1=L2689678.2  Phases=1  kV=7.2  kVA=0.7800  pmpp=0.7800  %Cutin=0.1  %Cutout=0.1
New PVsystem.pv_l2689691_a                             bus1=L2689691.1  Phases=1  kV=7.2  kVA=3.5480  pmpp=3.5480  %Cutin=0.1  %Cutout=0.1
New PVsystem.pv_l2690187_b                             bus1=L2690187.2  Phases=1  kV=7.2  kVA=11.6720  pmpp=11.6720  %Cutin=0.1  %Cutout=0.1
New PVsystem.pv_l2690868_c                             bus1=L2690868.3  Phases=1  kV=7.2  kVA=8.1360  pmpp=8.1360  %Cutin=0.1  %Cutout=0.1
New PVsystem.pv_l2690941_b                             bus1=L2690941.2  Phases=1  kV=7.2  kVA=3.8920  pmpp=3.8920  %Cutin=0.1  %Cutout=0.1
New PVsystem.pv_l2691936_a                             bus1=L2691936.1  Phases=1  kV=7.2  kVA=2.1280  pmpp=2.1280  %Cutin=0.1  %Cutout=0.1
New PVsystem.pv_l2691938_b                             bus1=L2691938.2  Phases=1  kV=7.2  kVA=3.8920  pmpp=3.8920  %Cutin=0.1  %Cutout=0.1
New PVsystem.pv_l2691939_b                             bus1=L2691939.2  Phases=1  kV=7.2  kVA=3.8920  pmpp=3.8920  %Cutin=0.1  %Cutout=0.1
New PVsystem.pv_l2691941_c                             bus1=L2691941.3  Phases=1  kV=7.2  kVA=4.0680  pmpp=4.0680  %Cutin=0.1  %Cutout=0.1
New PVsystem.pv_l2691942_b                             bus1=L2691942.2  Phases=1  kV=7.2  kVA=2.3360  pmpp=2.3360  %Cutin=0.1  %Cutout=0.1
New PVsystem.pv_l2691943_b                             bus1=L2691943.2  Phases=1  kV=7.2  kVA=2.3360  pmpp=2.3360  %Cutin=0.1  %Cutout=0.1
New PVsystem.pv_l2691944_a                             bus1=L2691944.1  Phases=1  kV=7.2  kVA=3.5480  pmpp=3.5480  %Cutin=0.1  %Cutout=0.1
New PVsystem.pv_l2691945_c                             bus1=L2691945.3  Phases=1  kV=7.2  kVA=4.0680  pmpp=4.0680  %Cutin=0.1  %Cutout=0.1
New PVsystem.pv_l2691946_b                             bus1=L2691946.2  Phases=1  kV=7.2  kVA=2.3360  pmpp=2.3360  %Cutin=0.1  %Cutout=0.1
New PVsystem.pv_l2691947_a                             bus1=L2691947.1  Phases=1  kV=7.2  kVA=1.4200  pmpp=1.4200  %Cutin=0.1  %Cutout=0.1
New PVsystem.pv_l2691948_b                             bus1=L2691948.2  Phases=1  kV=7.2  kVA=2.3360  pmpp=2.3360  %Cutin=0.1  %Cutout=0.1
New PVsystem.pv_l2691949_b                             bus1=L2691949.2  Phases=1  kV=7.2  kVA=3.8920  pmpp=3.8920  %Cutin=0.1  %Cutout=0.1
New PVsystem.pv_l2691950_c                             bus1=L2691950.3  Phases=1  kV=7.2  kVA=4.0680  pmpp=4.0680  %Cutin=0.1  %Cutout=0.1
New PVsystem.pv_l2691951_c                             bus1=L2691951.3  Phases=1  kV=7.2  kVA=4.0680  pmpp=4.0680  %Cutin=0.1  %Cutout=0.1
New PVsystem.pv_l2691952_a                             bus1=L2691952.1  Phases=1  kV=7.2  kVA=2.1280  pmpp=2.1280  %Cutin=0.1  %Cutout=0.1
New PVsystem.pv_l2691953_a                             bus1=L2691953.1  Phases=1  kV=7.2  kVA=2.1280  pmpp=2.1280  %Cutin=0.1  %Cutout=0.1
New PVsystem.pv_l2691954_b                             bus1=L2691954.2  Phases=1  kV=7.2  kVA=3.8920  pmpp=3.8920  %Cutin=0.1  %Cutout=0.1
New PVsystem.pv_l2691959_b                             bus1=L2691959.2  Phases=1  kV=7.2  kVA=15.5600  pmpp=15.5600  %Cutin=0.1  %Cutout=0.1
New PVsystem.pv_l2691965_b                             bus1=L2691965.2  Phases=1  kV=7.2  kVA=0.7800  pmpp=0.7800  %Cutin=0.1  %Cutout=0.1
New PVsystem.pv_l2691966_b                             bus1=L2691966.2  Phases=1  kV=7.2  kVA=7.7800  pmpp=7.7800  %Cutin=0.1  %Cutout=0.1
New PVsystem.pv_l2691967_b                             bus1=L2691967.2  Phases=1  kV=7.2  kVA=2.3360  pmpp=2.3360  %Cutin=0.1  %Cutout=0.1
New PVsystem.pv_l2691973_a                             bus1=L2691973.1  Phases=1  kV=7.2  kVA=2.1280  pmpp=2.1280  %Cutin=0.1  %Cutout=0.1
New PVsystem.pv_l2692600_c                             bus1=L2692600.3  Phases=1  kV=7.2  kVA=4.0680  pmpp=4.0680  %Cutin=0.1  %Cutout=0.1
New PVsystem.pv_l2692633_c                             bus1=L2692633.3  Phases=1  kV=7.2  kVA=4.0680  pmpp=4.0680  %Cutin=0.1  %Cutout=0.1
New PVsystem.pv_l2692654_a                             bus1=L2692654.1  Phases=1  kV=7.2  kVA=2.1280  pmpp=2.1280  %Cutin=0.1  %Cutout=0.1
New PVsystem.pv_l2692655_c                             bus1=L2692655.3  Phases=1  kV=7.2  kVA=4.0680  pmpp=4.0680  %Cutin=0.1  %Cutout=0.1
New PVsystem.pv_l2692660_a                             bus1=L2692660.1  Phases=1  kV=7.2  kVA=7.0960  pmpp=7.0960  %Cutin=0.1  %Cutout=0.1
New PVsystem.pv_l2692661_a                             bus1=L2692661.1  Phases=1  kV=7.2  kVA=3.5480  pmpp=3.5480  %Cutin=0.1  %Cutout=0.1
New PVsystem.pv_l2692664_c                             bus1=L2692664.3  Phases=1  kV=7.2  kVA=2.4400  pmpp=2.4400  %Cutin=0.1  %Cutout=0.1
New PVsystem.pv_l2708744_b                             bus1=L2708744.2  Phases=1  kV=7.2  kVA=11.6720  pmpp=11.6720  %Cutin=0.1  %Cutout=0.1
New PVsystem.pv_l2710504_b                             bus1=L2710504.2  Phases=1  kV=7.2  kVA=5.8360  pmpp=5.8360  %Cutin=0.1  %Cutout=0.1
New PVsystem.pv_l2710505_b                             bus1=L2710505.2  Phases=1  kV=7.2  kVA=2.3360  pmpp=2.3360  %Cutin=0.1  %Cutout=0.1
New PVsystem.pv_l2710508_b                             bus1=L2710508.2  Phases=1  kV=7.2  kVA=2.3360  pmpp=2.3360  %Cutin=0.1  %Cutout=0.1
New PVsystem.pv_l2710509_c                             bus1=L2710509.3  Phases=1  kV=7.2  kVA=2.4400  pmpp=2.4400  %Cutin=0.1  %Cutout=0.1
New PVsystem.pv_l2710510_c                             bus1=L2710510.3  Phases=1  kV=7.2  kVA=1.6280  pmpp=1.6280  %Cutin=0.1  %Cutout=0.1
New PVsystem.pv_l2710511_a                             bus1=L2710511.1  Phases=1  kV=7.2  kVA=3.5480  pmpp=3.5480  %Cutin=0.1  %Cutout=0.1
New PVsystem.pv_l2710512_b                             bus1=L2710512.2  Phases=1  kV=7.2  kVA=3.8920  pmpp=3.8920  %Cutin=0.1  %Cutout=0.1
New PVsystem.pv_l2710513_b                             bus1=L2710513.2  Phases=1  kV=7.2  kVA=1.5560  pmpp=1.5560  %Cutin=0.1  %Cutout=0.1
New PVsystem.pv_l2710514_b                             bus1=L2710514.2  Phases=1  kV=7.2  kVA=3.8920  pmpp=3.8920  %Cutin=0.1  %Cutout=0.1
New PVsystem.pv_l2710515_c                             bus1=L2710515.3  Phases=1  kV=7.2  kVA=6.1040  pmpp=6.1040  %Cutin=0.1  %Cutout=0.1
New PVsystem.pv_l2710516_a                             bus1=L2710516.1  Phases=1  kV=7.2  kVA=3.5480  pmpp=3.5480  %Cutin=0.1  %Cutout=0.1
New PVsystem.pv_l2710517_a                             bus1=L2710517.1  Phases=1  kV=7.2  kVA=2.1280  pmpp=2.1280  %Cutin=0.1  %Cutout=0.1
New PVsystem.pv_l2710518_a                             bus1=L2710518.1  Phases=1  kV=7.2  kVA=3.5480  pmpp=3.5480  %Cutin=0.1  %Cutout=0.1
New PVsystem.pv_l2710519_a                             bus1=L2710519.1  Phases=1  kV=7.2  kVA=1.4200  pmpp=1.4200  %Cutin=0.1  %Cutout=0.1
New PVsystem.pv_l2710520_a                             bus1=L2710520.1  Phases=1  kV=7.2  kVA=2.1280  pmpp=2.1280  %Cutin=0.1  %Cutout=0.1
New PVsystem.pv_l2710521_a                             bus1=L2710521.1  Phases=1  kV=7.2  kVA=3.5480  pmpp=3.5480  %Cutin=0.1  %Cutout=0.1
New PVsystem.pv_l2710525_c                             bus1=L2710525.3  Phases=1  kV=7.2  kVA=4.0680  pmpp=4.0680  %Cutin=0.1  %Cutout=0.1
New PVsystem.pv_l2710530_b                             bus1=L2710530.2  Phases=1  kV=7.2  kVA=2.3360  pmpp=2.3360  %Cutin=0.1  %Cutout=0.1
New PVsystem.pv_l2710532_c                             bus1=L2710532.3  Phases=1  kV=7.2  kVA=1.6280  pmpp=1.6280  %Cutin=0.1  %Cutout=0.1
New PVsystem.pv_l2710536_a                             bus1=L2710536.1  Phases=1  kV=7.2  kVA=3.5480  pmpp=3.5480  %Cutin=0.1  %Cutout=0.1
New PVsystem.pv_l2710537_b                             bus1=L2710537.2  Phases=1  kV=7.2  kVA=3.8920  pmpp=3.8920  %Cutin=0.1  %Cutout=0.1
New PVsystem.pv_l2710542_b                             bus1=L2710542.2  Phases=1  kV=7.2  kVA=3.8920  pmpp=3.8920  %Cutin=0.1  %Cutout=0.1
New PVsystem.pv_l2710543_c                             bus1=L2710543.3  Phases=1  kV=7.2  kVA=4.0680  pmpp=4.0680  %Cutin=0.1  %Cutout=0.1
New PVsystem.pv_l2710544_a                             bus1=L2710544.1  Phases=1  kV=7.2  kVA=2.1280  pmpp=2.1280  %Cutin=0.1  %Cutout=0.1
New PVsystem.pv_l2710546_b                             bus1=L2710546.2  Phases=1  kV=7.2  kVA=3.8920  pmpp=3.8920  %Cutin=0.1  %Cutout=0.1
New PVsystem.pv_l2711224_b                             bus1=L2711224.2  Phases=1  kV=7.2  kVA=1.5560  pmpp=1.5560  %Cutin=0.1  %Cutout=0.1
New PVsystem.pv_l2711225_c                             bus1=L2711225.3  Phases=1  kV=7.2  kVA=2.4400  pmpp=2.4400  %Cutin=0.1  %Cutout=0.1
New PVsystem.pv_l2711226_b                             bus1=L2711226.2  Phases=1  kV=7.2  kVA=3.8920  pmpp=3.8920  %Cutin=0.1  %Cutout=0.1
New PVsystem.pv_l2711234_b                             bus1=L2711234.2  Phases=1  kV=7.2  kVA=3.8920  pmpp=3.8920  %Cutin=0.1  %Cutout=0.1
New PVsystem.pv_l2724120_c                             bus1=L2724120.3  Phases=1  kV=7.2  kVA=4.0680  pmpp=4.0680  %Cutin=0.1  %Cutout=0.1
New PVsystem.pv_l2726973_a                             bus1=L2726973.1  Phases=1  kV=7.2  kVA=3.5480  pmpp=3.5480  %Cutin=0.1  %Cutout=0.1
New PVsystem.pv_l2726974_b                             bus1=L2726974.2  Phases=1  kV=7.2  kVA=3.8920  pmpp=3.8920  %Cutin=0.1  %Cutout=0.1
New PVsystem.pv_l2726975_b                             bus1=L2726975.2  Phases=1  kV=7.2  kVA=2.3360  pmpp=2.3360  %Cutin=0.1  %Cutout=0.1
New PVsystem.pv_l2726983_a                             bus1=L2726983.1  Phases=1  kV=7.2  kVA=5.3200  pmpp=5.3200  %Cutin=0.1  %Cutout=0.1
New PVsystem.pv_l2727795_c                             bus1=L2727795.3  Phases=1  kV=7.2  kVA=2.4400  pmpp=2.4400  %Cutin=0.1  %Cutout=0.1
New PVsystem.pv_l2728247_a                             bus1=L2728247.1  Phases=1  kV=7.2  kVA=1.4200  pmpp=1.4200  %Cutin=0.1  %Cutout=0.1
New PVsystem.pv_l2728247_b                             bus1=L2728247.2  Phases=1  kV=7.2  kVA=3.8920  pmpp=3.8920  %Cutin=0.1  %Cutout=0.1
New PVsystem.pv_l2728247_c                             bus1=L2728247.3  Phases=1  kV=7.2  kVA=1.6280  pmpp=1.6280  %Cutin=0.1  %Cutout=0.1
New PVsystem.pv_l2729206_c                             bus1=L2729206.3  Phases=1  kV=7.2  kVA=6.1040  pmpp=6.1040  %Cutin=0.1  %Cutout=0.1
New PVsystem.pv_l2729207_c                             bus1=L2729207.3  Phases=1  kV=7.2  kVA=8.1360  pmpp=8.1360  %Cutin=0.1  %Cutout=0.1
New PVsystem.pv_l2729401_b                             bus1=L2729401.2  Phases=1  kV=7.2  kVA=2.3360  pmpp=2.3360  %Cutin=0.1  %Cutout=0.1
New PVsystem.pv_l2729405_b                             bus1=L2729405.2  Phases=1  kV=7.2  kVA=3.8920  pmpp=3.8920  %Cutin=0.1  %Cutout=0.1
New PVsystem.pv_l2729406_c                             bus1=L2729406.3  Phases=1  kV=7.2  kVA=2.4400  pmpp=2.4400  %Cutin=0.1  %Cutout=0.1
New PVsystem.pv_l2729407_b                             bus1=L2729407.2  Phases=1  kV=7.2  kVA=2.3360  pmpp=2.3360  %Cutin=0.1  %Cutout=0.1
New PVsystem.pv_l2729408_b                             bus1=L2729408.2  Phases=1  kV=7.2  kVA=3.8920  pmpp=3.8920  %Cutin=0.1  %Cutout=0.1
New PVsystem.pv_l2729409_b                             bus1=L2729409.2  Phases=1  kV=7.2  kVA=3.8920  pmpp=3.8920  %Cutin=0.1  %Cutout=0.1
New PVsystem.pv_l2729410_c                             bus1=L2729410.3  Phases=1  kV=7.2  kVA=4.0680  pmpp=4.0680  %Cutin=0.1  %Cutout=0.1
New PVsystem.pv_l2729411_a                             bus1=L2729411.1  Phases=1  kV=7.2  kVA=1.4200  pmpp=1.4200  %Cutin=0.1  %Cutout=0.1
New PVsystem.pv_l2729412_a                             bus1=L2729412.1  Phases=1  kV=7.2  kVA=3.5480  pmpp=3.5480  %Cutin=0.1  %Cutout=0.1
New PVsystem.pv_l2729413_a                             bus1=L2729413.1  Phases=1  kV=7.2  kVA=2.1280  pmpp=2.1280  %Cutin=0.1  %Cutout=0.1
New PVsystem.pv_l2729414_a                             bus1=L2729414.1  Phases=1  kV=7.2  kVA=3.5480  pmpp=3.5480  %Cutin=0.1  %Cutout=0.1
New PVsystem.pv_l2729414_b                             bus1=L2729414.2  Phases=1  kV=7.2  kVA=3.8920  pmpp=3.8920  %Cutin=0.1  %Cutout=0.1
New PVsystem.pv_l2729414_c                             bus1=L2729414.3  Phases=1  kV=7.2  kVA=4.0680  pmpp=4.0680  %Cutin=0.1  %Cutout=0.1
New PVsystem.pv_l2729423_c                             bus1=L2729423.3  Phases=1  kV=7.2  kVA=2.4400  pmpp=2.4400  %Cutin=0.1  %Cutout=0.1
New PVsystem.pv_l2729424_a                             bus1=L2729424.1  Phases=1  kV=7.2  kVA=2.1280  pmpp=2.1280  %Cutin=0.1  %Cutout=0.1
New PVsystem.pv_l2729427_b                             bus1=L2729427.2  Phases=1  kV=7.2  kVA=2.3360  pmpp=2.3360  %Cutin=0.1  %Cutout=0.1
New PVsystem.pv_l2729428_a                             bus1=L2729428.1  Phases=1  kV=7.2  kVA=2.1280  pmpp=2.1280  %Cutin=0.1  %Cutout=0.1
New PVsystem.pv_l2729429_a                             bus1=L2729429.1  Phases=1  kV=7.2  kVA=3.5480  pmpp=3.5480  %Cutin=0.1  %Cutout=0.1
New PVsystem.pv_l2729430_b                             bus1=L2729430.2  Phases=1  kV=7.2  kVA=3.8920  pmpp=3.8920  %Cutin=0.1  %Cutout=0.1
New PVsystem.pv_l2729434_b                             bus1=L2729434.2  Phases=1  kV=7.2  kVA=2.3360  pmpp=2.3360  %Cutin=0.1  %Cutout=0.1
New PVsystem.pv_l2730106_c                             bus1=L2730106.3  Phases=1  kV=7.2  kVA=4.0680  pmpp=4.0680  %Cutin=0.1  %Cutout=0.1
New PVsystem.pv_l2730107_c                             bus1=L2730107.3  Phases=1  kV=7.2  kVA=4.0680  pmpp=4.0680  %Cutin=0.1  %Cutout=0.1
New PVsystem.pv_l2730108_c                             bus1=L2730108.3  Phases=1  kV=7.2  kVA=2.4400  pmpp=2.4400  %Cutin=0.1  %Cutout=0.1
New PVsystem.pv_l2730149_c                             bus1=L2730149.3  Phases=1  kV=7.2  kVA=2.4400  pmpp=2.4400  %Cutin=0.1  %Cutout=0.1
New PVsystem.pv_l2730163_c                             bus1=L2730163.3  Phases=1  kV=7.2  kVA=4.0680  pmpp=4.0680  %Cutin=0.1  %Cutout=0.1
New PVsystem.pv_l2730187_a                             bus1=L2730187.1  Phases=1  kV=7.2  kVA=5.3200  pmpp=5.3200  %Cutin=0.1  %Cutout=0.1
New PVsystem.pv_l2731712_b                             bus1=L2731712.2  Phases=1  kV=7.2  kVA=3.8920  pmpp=3.8920  %Cutin=0.1  %Cutout=0.1
New PVsystem.pv_l2745799_c                             bus1=L2745799.3  Phases=1  kV=7.2  kVA=4.0680  pmpp=4.0680  %Cutin=0.1  %Cutout=0.1
New PVsystem.pv_l2745806_c                             bus1=L2745806.3  Phases=1  kV=7.2  kVA=4.0680  pmpp=4.0680  %Cutin=0.1  %Cutout=0.1
New PVsystem.pv_l2745811_c                             bus1=L2745811.3  Phases=1  kV=7.2  kVA=4.0680  pmpp=4.0680  %Cutin=0.1  %Cutout=0.1
New PVsystem.pv_l2746587_c                             bus1=L2746587.3  Phases=1  kV=7.2  kVA=4.0680  pmpp=4.0680  %Cutin=0.1  %Cutout=0.1
New PVsystem.pv_l2748124_b                             bus1=L2748124.2  Phases=1  kV=7.2  kVA=3.8920  pmpp=3.8920  %Cutin=0.1  %Cutout=0.1
New PVsystem.pv_l2748125_c                             bus1=L2748125.3  Phases=1  kV=7.2  kVA=4.0680  pmpp=4.0680  %Cutin=0.1  %Cutout=0.1
New PVsystem.pv_l2748126_c                             bus1=L2748126.3  Phases=1  kV=7.2  kVA=4.0680  pmpp=4.0680  %Cutin=0.1  %Cutout=0.1
New PVsystem.pv_l2748127_a                             bus1=L2748127.1  Phases=1  kV=7.2  kVA=2.1280  pmpp=2.1280  %Cutin=0.1  %Cutout=0.1
New PVsystem.pv_l2748128_c                             bus1=L2748128.3  Phases=1  kV=7.2  kVA=4.0680  pmpp=4.0680  %Cutin=0.1  %Cutout=0.1
New PVsystem.pv_l2748129_a                             bus1=L2748129.1  Phases=1  kV=7.2  kVA=5.3200  pmpp=5.3200  %Cutin=0.1  %Cutout=0.1
New PVsystem.pv_l2748130_b                             bus1=L2748130.2  Phases=1  kV=7.2  kVA=3.8920  pmpp=3.8920  %Cutin=0.1  %Cutout=0.1
New PVsystem.pv_l2748131_b                             bus1=L2748131.2  Phases=1  kV=7.2  kVA=2.3360  pmpp=2.3360  %Cutin=0.1  %Cutout=0.1
New PVsystem.pv_l2748132_a                             bus1=L2748132.1  Phases=1  kV=7.2  kVA=2.1280  pmpp=2.1280  %Cutin=0.1  %Cutout=0.1
New PVsystem.pv_l2748133_c                             bus1=L2748133.3  Phases=1  kV=7.2  kVA=2.4400  pmpp=2.4400  %Cutin=0.1  %Cutout=0.1
New PVsystem.pv_l2748135_a                             bus1=L2748135.1  Phases=1  kV=7.2  kVA=3.5480  pmpp=3.5480  %Cutin=0.1  %Cutout=0.1
New PVsystem.pv_l2748139_b                             bus1=L2748139.2  Phases=1  kV=7.2  kVA=2.3360  pmpp=2.3360  %Cutin=0.1  %Cutout=0.1
New PVsystem.pv_l2748140_a                             bus1=L2748140.1  Phases=1  kV=7.2  kVA=3.5480  pmpp=3.5480  %Cutin=0.1  %Cutout=0.1
New PVsystem.pv_l2748143_a                             bus1=L2748143.1  Phases=1  kV=7.2  kVA=3.5480  pmpp=3.5480  %Cutin=0.1  %Cutout=0.1
New PVsystem.pv_l2748144_a                             bus1=L2748144.1  Phases=1  kV=7.2  kVA=3.5480  pmpp=3.5480  %Cutin=0.1  %Cutout=0.1
New PVsystem.pv_l2748146_a                             bus1=L2748146.1  Phases=1  kV=7.2  kVA=2.1280  pmpp=2.1280  %Cutin=0.1  %Cutout=0.1
New PVsystem.pv_l2748152_b                             bus1=L2748152.2  Phases=1  kV=7.2  kVA=2.3360  pmpp=2.3360  %Cutin=0.1  %Cutout=0.1
New PVsystem.pv_l2748157_a                             bus1=L2748157.1  Phases=1  kV=7.2  kVA=5.3200  pmpp=5.3200  %Cutin=0.1  %Cutout=0.1
New PVsystem.pv_l2748158_a                             bus1=L2748158.1  Phases=1  kV=7.2  kVA=2.1280  pmpp=2.1280  %Cutin=0.1  %Cutout=0.1
New PVsystem.pv_l2748780_a                             bus1=L2748780.1  Phases=1  kV=7.2  kVA=3.5480  pmpp=3.5480  %Cutin=0.1  %Cutout=0.1
New PVsystem.pv_l2748781_a                             bus1=L2748781.1  Phases=1  kV=7.2  kVA=5.3200  pmpp=5.3200  %Cutin=0.1  %Cutout=0.1
New PVsystem.pv_l2748839_b                             bus1=L2748839.2  Phases=1  kV=7.2  kVA=1.5560  pmpp=1.5560  %Cutin=0.1  %Cutout=0.1
New PVsystem.pv_l2748840_b                             bus1=L2748840.2  Phases=1  kV=7.2  kVA=2.3360  pmpp=2.3360  %Cutin=0.1  %Cutout=0.1
New PVsystem.pv_l2763072_b                             bus1=L2763072.2  Phases=1  kV=7.2  kVA=3.8920  pmpp=3.8920  %Cutin=0.1  %Cutout=0.1
New PVsystem.pv_l2763153_a                             bus1=L2763153.1  Phases=1  kV=7.2  kVA=3.5480  pmpp=3.5480  %Cutin=0.1  %Cutout=0.1
New PVsystem.pv_l2763407_c                             bus1=L2763407.3  Phases=1  kV=7.2  kVA=4.0680  pmpp=4.0680  %Cutin=0.1  %Cutout=0.1
New PVsystem.pv_l2763811_c                             bus1=L2763811.3  Phases=1  kV=7.2  kVA=12.2080  pmpp=12.2080  %Cutin=0.1  %Cutout=0.1
New PVsystem.pv_l2763812_c                             bus1=L2763812.3  Phases=1  kV=7.2  kVA=12.2080  pmpp=12.2080  %Cutin=0.1  %Cutout=0.1
New PVsystem.pv_l2764399_b                             bus1=L2764399.2  Phases=1  kV=7.2  kVA=2.3360  pmpp=2.3360  %Cutin=0.1  %Cutout=0.1
New PVsystem.pv_l2764403_a                             bus1=L2764403.1  Phases=1  kV=7.2  kVA=3.5480  pmpp=3.5480  %Cutin=0.1  %Cutout=0.1
New PVsystem.pv_l2764411_c                             bus1=L2764411.3  Phases=1  kV=7.2  kVA=2.4400  pmpp=2.4400  %Cutin=0.1  %Cutout=0.1
New PVsystem.pv_l2764412_a                             bus1=L2764412.1  Phases=1  kV=7.2  kVA=3.5480  pmpp=3.5480  %Cutin=0.1  %Cutout=0.1
New PVsystem.pv_l2766499_c                             bus1=L2766499.3  Phases=1  kV=7.2  kVA=8.1360  pmpp=8.1360  %Cutin=0.1  %Cutout=0.1
New PVsystem.pv_l2766715_b                             bus1=L2766715.2  Phases=1  kV=7.2  kVA=2.3360  pmpp=2.3360  %Cutin=0.1  %Cutout=0.1
New PVsystem.pv_l2766716_c                             bus1=L2766716.3  Phases=1  kV=7.2  kVA=2.4400  pmpp=2.4400  %Cutin=0.1  %Cutout=0.1
New PVsystem.pv_l2766717_c                             bus1=L2766717.3  Phases=1  kV=7.2  kVA=1.6280  pmpp=1.6280  %Cutin=0.1  %Cutout=0.1
New PVsystem.pv_l2766718_c                             bus1=L2766718.3  Phases=1  kV=7.2  kVA=6.1040  pmpp=6.1040  %Cutin=0.1  %Cutout=0.1
New PVsystem.pv_l2766719_a                             bus1=L2766719.1  Phases=1  kV=7.2  kVA=3.5480  pmpp=3.5480  %Cutin=0.1  %Cutout=0.1
New PVsystem.pv_l2766720_a                             bus1=L2766720.1  Phases=1  kV=7.2  kVA=3.5480  pmpp=3.5480  %Cutin=0.1  %Cutout=0.1
New PVsystem.pv_l2766721_a                             bus1=L2766721.1  Phases=1  kV=7.2  kVA=3.5480  pmpp=3.5480  %Cutin=0.1  %Cutout=0.1
New PVsystem.pv_l2766722_b                             bus1=L2766722.2  Phases=1  kV=7.2  kVA=3.8920  pmpp=3.8920  %Cutin=0.1  %Cutout=0.1
New PVsystem.pv_l2766723_a                             bus1=L2766723.1  Phases=1  kV=7.2  kVA=3.5480  pmpp=3.5480  %Cutin=0.1  %Cutout=0.1
New PVsystem.pv_l2766724_c                             bus1=L2766724.3  Phases=1  kV=7.2  kVA=2.4400  pmpp=2.4400  %Cutin=0.1  %Cutout=0.1
New PVsystem.pv_l2766725_c                             bus1=L2766725.3  Phases=1  kV=7.2  kVA=2.4400  pmpp=2.4400  %Cutin=0.1  %Cutout=0.1
New PVsystem.pv_l2766726_b                             bus1=L2766726.2  Phases=1  kV=7.2  kVA=2.3360  pmpp=2.3360  %Cutin=0.1  %Cutout=0.1
New PVsystem.pv_l2766727_b                             bus1=L2766727.2  Phases=1  kV=7.2  kVA=2.3360  pmpp=2.3360  %Cutin=0.1  %Cutout=0.1
New PVsystem.pv_l2766729_a                             bus1=L2766729.1  Phases=1  kV=7.2  kVA=3.5480  pmpp=3.5480  %Cutin=0.1  %Cutout=0.1
New PVsystem.pv_l2766730_b                             bus1=L2766730.2  Phases=1  kV=7.2  kVA=2.3360  pmpp=2.3360  %Cutin=0.1  %Cutout=0.1
New PVsystem.pv_l2766732_b                             bus1=L2766732.2  Phases=1  kV=7.2  kVA=1.5560  pmpp=1.5560  %Cutin=0.1  %Cutout=0.1
New PVsystem.pv_l2766738_c                             bus1=L2766738.3  Phases=1  kV=7.2  kVA=4.0680  pmpp=4.0680  %Cutin=0.1  %Cutout=0.1
New PVsystem.pv_l2766741_a                             bus1=L2766741.1  Phases=1  kV=7.2  kVA=3.5480  pmpp=3.5480  %Cutin=0.1  %Cutout=0.1
New PVsystem.pv_l2766742_b                             bus1=L2766742.2  Phases=1  kV=7.2  kVA=2.3360  pmpp=2.3360  %Cutin=0.1  %Cutout=0.1
New PVsystem.pv_l2766744_b                             bus1=L2766744.2  Phases=1  kV=7.2  kVA=3.8920  pmpp=3.8920  %Cutin=0.1  %Cutout=0.1
New PVsystem.pv_l2766746_c                             bus1=L2766746.3  Phases=1  kV=7.2  kVA=4.0680  pmpp=4.0680  %Cutin=0.1  %Cutout=0.1
...
